123_todos_sw_abiertos.Txt

LINE-GROUND and LINE-LINE VOLTAGES BY BUS & NODE

Bus   Node    VLN (kV)   Angle      pu     Base kV    Node-Node   VLL (kV)  Angle      pu

150 . 1       2.4018 /_    0.0         1     4.160        1-2       4.16 /_   30.0         1
   -  2       2.4018 /_ -120.0         1     4.160        2-3       4.16 /_  -90.0         1
   -  3       2.4018 /_  120.0         1     4.160        3-1       4.16 /_  150.0         1
SUP_2 1       2.4012 /_    0.0   0.99976     4.160        1-2     4.1591 /_   30.0   0.99978
   -  2       2.4014 /_ -120.0   0.99984     4.160        2-3     4.1592 /_  -90.0   0.99982
   -  3       2.4012 /_  120.0   0.99974     4.160        3-1     4.1589 /_  150.0   0.99974
SUP_1 1       2.4004 /_    0.0   0.99941     4.160        1-2     4.1576 /_   30.0   0.99943
   -  2       2.4007 /_ -120.0   0.99954     4.160        2-3     4.1581 /_  -90.0   0.99954
   -  3       2.4006 /_  120.0   0.99952     4.160        3-1     4.1579 /_  150.0    0.9995
SUP_3 1       2.4016 /_    0.0   0.99995     4.160        1-2     4.1598 /_   30.0   0.99995
   -  2       2.4019 /_ -120.0    1.0001     4.160        2-3     4.1606 /_  -90.0    1.0002
   -  3       2.4022 /_  120.0    1.0002     4.160        3-1     4.1604 /_  150.0    1.0001
149 . 1       2.4018 /_    0.0         1     4.160        1-2       4.16 /_   30.0         1
   -  2       2.4018 /_ -120.0         1     4.160        2-3       4.16 /_  -90.0         1
   -  3       2.4018 /_  120.0         1     4.160        3-1       4.16 /_  150.0         1
1 ... 1       2.3943 /_   -0.1   0.99689     4.160        1-2     4.1498 /_   30.0   0.99755
   -  2       2.4004 /_ -120.0   0.99942     4.160        2-3     4.1521 /_  -90.1    0.9981
   -  3       2.3937 /_  120.0   0.99662     4.160        3-1     4.1487 /_  149.9   0.99728
2 ... 2       2.3998 /_ -120.0   0.99919     4.160
3 ... 3       2.3897 /_  119.9   0.99498     4.160
7 ... 1       2.3887 /_   -0.2   0.99456     4.160        1-2     4.1431 /_   29.9   0.99594
   -  2       2.3995 /_ -120.1   0.99907     4.160        2-3     4.1471 /_  -90.1   0.99691
   -  3       2.3898 /_  120.0   0.99502     4.160        3-1     4.1425 /_  149.9   0.99579
4 ... 3       2.3884 /_  119.9   0.99445     4.160
5 ... 3       2.3866 /_  119.9    0.9937     4.160
6 ... 3       2.3851 /_  119.9   0.99305     4.160
8 ... 1       2.3853 /_   -0.3   0.99314     4.160        1-2     4.1389 /_   29.9   0.99493
   -  2       2.3988 /_ -120.1   0.99876     4.160        2-3     4.1438 /_  -90.1    0.9961
   -  3       2.3873 /_  120.0   0.99396     4.160        3-1     4.1384 /_  149.8   0.99482
12 .. 2       2.3981 /_ -120.1   0.99846     4.160
9 ... 1       2.3817 /_   -0.3   0.99166     4.160
13 .. 1       2.3826 /_   -0.3   0.99202     4.160        1-2     4.1344 /_   29.9   0.99385
   -  2       2.3968 /_ -120.1   0.99793     4.160        2-3     4.1389 /_  -90.2   0.99492
   -  3       2.3834 /_  119.9   0.99236     4.160        3-1     4.1331 /_  149.8   0.99354
9R .. 1       2.3817 /_   -0.3   0.99166     4.160
14 .. 1       2.3777 /_   -0.4   0.98999     4.160
34 .. 3       2.3811 /_  119.9   0.99137     4.160
18 .. 1       2.3825 /_   -0.4   0.99196     4.160        1-2      4.135 /_   29.9   0.99399
   -  2       2.3979 /_ -120.1   0.99838     4.160        2-3      4.143 /_  -90.2   0.99591
   -  3       2.3874 /_  119.9   0.99401     4.160        3-1     4.1369 /_  149.8   0.99445
11 .. 1       2.3762 /_   -0.4   0.98934     4.160
10 .. 1       2.3769 /_   -0.4   0.98966     4.160
15 .. 3       2.3801 /_  119.9   0.99097     4.160
16 .. 3       2.3777 /_  119.9   0.98998     4.160
17 .. 3        2.379 /_  119.9   0.99051     4.160
19 .. 1       2.3793 /_   -0.4   0.99064     4.160
21 .. 1       2.3827 /_   -0.4   0.99207     4.160        1-2     4.1347 /_   29.9   0.99392
   -  2       2.3977 /_ -120.1   0.99831     4.160        2-3     4.1426 /_  -90.2   0.99582
   -  3       2.3865 /_  119.9   0.99363     4.160        3-1     4.1361 /_  149.8   0.99426
20 .. 1       2.3772 /_   -0.4   0.98979     4.160
22 .. 2       2.3944 /_ -120.1   0.99693     4.160
N21 . 1        2.383 /_   -0.4    0.9922     4.160        1-2     4.1347 /_   29.9   0.99392
   -  2       2.3983 /_ -120.1   0.99857     4.160        2-3     4.1429 /_  -90.2    0.9959
   -  3       2.3854 /_  119.9   0.99317     4.160        3-1     4.1355 /_  149.7   0.99411
23 .. 1        2.383 /_   -0.4   0.99219     4.160        1-2     4.1347 /_   29.9   0.99392
   -  2       2.3984 /_ -120.1   0.99858     4.160        2-3      4.143 /_  -90.2    0.9959
   -  3       2.3853 /_  119.9   0.99316     4.160        3-1     4.1355 /_  149.7    0.9941
24 .. 3       2.3818 /_  119.9    0.9917     4.160
25 .. 1       2.3829 /_   -0.4   0.99212     4.160        1-2     4.1346 /_   29.9   0.99389
   -  2       2.3992 /_ -120.1   0.99891     4.160        2-3     4.1436 /_  -90.2   0.99605
   -  3        2.385 /_  119.9   0.99301     4.160        3-1     4.1354 /_  149.7   0.99409
25R . 1       2.3828 /_   -0.4   0.99212     4.160
   -  3       2.3701 /_  119.9    0.9868     4.160        3-1     4.1225 /_  149.8   0.99098
26 .. 1       2.3822 /_   -0.4   0.99187     4.160
   -  3       2.3689 /_  119.9   0.98629     4.160        3-1     4.1212 /_  149.8   0.99068
28 .. 1        2.383 /_   -0.4   0.99218     4.160        1-2     4.1349 /_   29.9   0.99397
   -  2       2.3995 /_ -120.1   0.99904     4.160        2-3     4.1443 /_  -90.2   0.99622
   -  3       2.3855 /_  119.9   0.99321     4.160        3-1      4.136 /_  149.7   0.99424
27 .. 1       2.3814 /_   -0.4   0.99151     4.160
   -  3       2.3688 /_  119.9   0.98626     4.160        3-1      4.121 /_  149.8   0.99062
31 .. 3       2.3674 /_  119.9   0.98569     4.160
33 .. 1       2.3782 /_   -0.5   0.99019     4.160
29 .. 1       2.3841 /_   -0.4   0.99266     4.160        1-2     4.1361 /_   29.9   0.99426
   -  2       2.3995 /_ -120.1   0.99906     4.160        2-3     4.1454 /_  -90.2   0.99648
   -  3       2.3863 /_  119.9   0.99357     4.160        3-1     4.1372 /_  149.7   0.99453
30 .. 1       2.3866 /_   -0.3   0.99367     4.160        1-2     4.1384 /_   29.9   0.99481
   -  2        2.399 /_ -120.0   0.99885     4.160        2-3     4.1468 /_  -90.2   0.99682
   -  3       2.3875 /_  119.9   0.99406     4.160        3-1      4.139 /_  149.8   0.99496
250 . 1       2.3876 /_   -0.3    0.9941     4.160        1-2     4.1396 /_   29.9    0.9951
   -  2       2.3988 /_ -120.0   0.99876     4.160        2-3     4.1477 /_  -90.1   0.99705
   -  3       2.3888 /_  119.9   0.99461     4.160        3-1     4.1405 /_  149.8   0.99531
32 .. 3       2.3665 /_  119.9   0.98529     4.160
35 .. 1       2.3848 /_   -0.3   0.99295     4.160        1-2     4.1381 /_   29.9   0.99473
   -  2       2.3975 /_ -120.1   0.99823     4.160        2-3      4.145 /_  -90.1   0.99639
   -  3       2.3905 /_  119.9    0.9953     4.160        3-1     4.1407 /_  149.8   0.99535
36 .. 1       2.3826 /_   -0.3   0.99203     4.160        1-2     4.1358 /_   29.9   0.99418
   -  2       2.3964 /_ -120.2   0.99775     4.160
40 .. 1       2.3875 /_   -0.2   0.99406     4.160        1-2     4.1412 /_   29.9   0.99549
   -  2       2.3977 /_ -120.1   0.99831     4.160        2-3      4.147 /_  -90.1   0.99689
   -  3       2.3922 /_  119.9   0.99603     4.160        3-1     4.1435 /_  149.8   0.99603
37 .. 1       2.3807 /_   -0.3   0.99124     4.160
38 .. 2       2.3948 /_ -120.2   0.99709     4.160
39 .. 2       2.3938 /_ -120.2   0.99666     4.160
41 .. 3       2.3912 /_  119.9    0.9956     4.160
42 .. 1         2.39 /_   -0.2    0.9951     4.160        1-2     4.1444 /_   29.9   0.99624
   -  2        2.398 /_ -120.1   0.99841     4.160        2-3     4.1492 /_  -90.1   0.99741
   -  3       2.3944 /_  120.0   0.99693     4.160        3-1     4.1466 /_  149.8   0.99679
43 .. 2       2.3948 /_ -120.1    0.9971     4.160
44 .. 1       2.3924 /_   -0.2    0.9961     4.160        1-2     4.1473 /_   29.9   0.99695
   -  2       2.3986 /_ -120.1   0.99868     4.160        2-3     4.1514 /_  -90.1   0.99794
   -  3       2.3959 /_  120.0   0.99754     4.160        3-1     4.1493 /_  149.9   0.99743
45 .. 1       2.3911 /_   -0.2   0.99557     4.160
47 .. 1       2.3962 /_   -0.1   0.99768     4.160        1-2     4.1516 /_   29.9   0.99797
   -  2       2.3989 /_ -120.0   0.99882     4.160        2-3     4.1541 /_  -90.1   0.99858
   -  3       2.3978 /_  120.0   0.99833     4.160        3-1     4.1529 /_  149.9   0.99828
46 .. 1       2.3902 /_   -0.2   0.99517     4.160
48 .. 1          2.4 /_    0.0   0.99928     4.160        1-2     4.1571 /_   30.0   0.99931
   -  2       2.4005 /_ -120.0   0.99945     4.160        2-3     4.1577 /_  -90.0   0.99944
   -  3       2.4004 /_  120.0   0.99941     4.160        3-1     4.1575 /_  150.0   0.99939
49 .. 1       2.3941 /_   -0.1   0.99679     4.160        1-2      4.148 /_   29.9   0.99711
   -  2       2.3978 /_ -120.1   0.99833     4.160        2-3     4.1517 /_  -90.1     0.998
   -  3       2.3955 /_  119.9   0.99741     4.160        3-1     4.1493 /_  149.9   0.99743
50 .. 1       2.3925 /_   -0.2   0.99615     4.160        1-2     4.1457 /_   29.9   0.99656
   -  2        2.398 /_ -120.0   0.99844     4.160        2-3     4.1505 /_  -90.1   0.99772
   -  3       2.3933 /_  119.9   0.99646     4.160        3-1     4.1466 /_  149.9   0.99677
51 .. 1       2.3906 /_   -0.2   0.99537     4.160        1-2     4.1435 /_   29.9   0.99603
   -  2       2.3984 /_ -120.0    0.9986     4.160        2-3     4.1496 /_  -90.1   0.99751
   -  3       2.3918 /_  119.9   0.99584     4.160        3-1     4.1445 /_  149.8   0.99627
151 . 1       2.3877 /_   -0.3   0.99412     4.160        1-2     4.1397 /_   29.9   0.99512
   -  2       2.3988 /_ -120.0   0.99877     4.160        2-3     4.1478 /_  -90.1   0.99707
   -  3       2.3889 /_  119.9   0.99463     4.160        3-1     4.1406 /_  149.8   0.99533
52 .. 1       2.3775 /_   -0.4   0.98987     4.160        1-2     4.1281 /_   29.8   0.99234
   -  2        2.394 /_ -120.2   0.99677     4.160        2-3     4.1313 /_  -90.2   0.99309
   -  3       2.3795 /_  120.0   0.99072     4.160        3-1     4.1264 /_  149.8   0.99192
53 .. 1       2.3755 /_   -0.4   0.98906     4.160        1-2     4.1255 /_   29.8    0.9917
   -  2       2.3923 /_ -120.2   0.99604     4.160        2-3     4.1274 /_  -90.2   0.99216
   -  3       2.3776 /_  120.0   0.98993     4.160        3-1     4.1232 /_  149.8   0.99116
54 .. 1       2.3747 /_   -0.4   0.98872     4.160        1-2     4.1241 /_   29.8   0.99137
   -  2       2.3909 /_ -120.2   0.99549     4.160        2-3     4.1249 /_  -90.2   0.99157
   -  3       2.3764 /_  120.0   0.98944     4.160        3-1     4.1214 /_  149.8   0.99071
55 .. 1       2.3742 /_   -0.4   0.98852     4.160        1-2     4.1236 /_   29.8   0.99126
   -  2       2.3907 /_ -120.2   0.99541     4.160        2-3     4.1246 /_  -90.2    0.9915
   -  3       2.3766 /_  120.0   0.98952     4.160        3-1     4.1212 /_  149.8   0.99067
57 .. 1       2.3734 /_   -0.4   0.98817     4.160        1-2     4.1203 /_   29.8   0.99046
   -  2       2.3873 /_ -120.2   0.99395     4.160        2-3     4.1188 /_  -90.2   0.99009
   -  3       2.3734 /_  120.0    0.9882     4.160        3-1     4.1174 /_  149.8   0.98976
56 .. 1       2.3741 /_   -0.4   0.98849     4.160        1-2     4.1235 /_   29.8   0.99123
   -  2       2.3903 /_ -120.2   0.99523     4.160        2-3     4.1243 /_  -90.2   0.99142
   -  3       2.3768 /_  120.0    0.9896     4.160        3-1     4.1212 /_  149.8   0.99067
58 .. 2       2.3857 /_ -120.2   0.99329     4.160
60 .. 1       2.3707 /_   -0.4   0.98708     4.160        1-2      4.113 /_   29.8   0.98869
   -  2       2.3817 /_ -120.2   0.99165     4.160        2-3     4.1073 /_  -90.2   0.98734
   -  3       2.3657 /_  120.0   0.98498     4.160        3-1     4.1087 /_  149.8   0.98766
59 .. 2       2.3849 /_ -120.3   0.99296     4.160
61 .. 1       2.3707 /_   -0.4   0.98708     4.160        1-2      4.113 /_   29.8   0.98869
   -  2       2.3817 /_ -120.2   0.99165     4.160        2-3     4.1073 /_  -90.2   0.98734
   -  3       2.3657 /_  120.0   0.98498     4.160        3-1     4.1087 /_  149.8   0.98766
62 .. 1       2.3725 /_   -0.3   0.98781     4.160        1-2     4.1169 /_   29.8   0.98965
   -  2       2.3838 /_ -120.2   0.99251     4.160        2-3     4.1149 /_  -90.2   0.98916
   -  3       2.3714 /_  119.9   0.98735     4.160        3-1     4.1137 /_  149.8   0.98886
63 .. 1       2.3736 /_   -0.3   0.98826     4.160        1-2     4.1197 /_   29.8   0.99032
   -  2       2.3851 /_ -120.2   0.99305     4.160        2-3     4.1208 /_  -90.2   0.99057
   -  3       2.3764 /_  119.9   0.98944     4.160        3-1     4.1178 /_  149.8   0.98985
64 .. 1       2.3778 /_   -0.2   0.99003     4.160        1-2     4.1265 /_   29.9   0.99196
   -  2       2.3873 /_ -120.2   0.99395     4.160        2-3     4.1325 /_  -90.2   0.99338
   -  3       2.3861 /_  119.9   0.99348     4.160        3-1     4.1272 /_  149.8   0.99213
65 .. 1       2.3899 /_   -0.1   0.99507     4.160        1-2     4.1435 /_   29.9   0.99602
   -  2       2.3945 /_ -120.1   0.99698     4.160        2-3     4.1461 /_  -90.1   0.99666
   -  3       2.3935 /_  119.9   0.99654     4.160        3-1      4.143 /_  149.9    0.9959
66 .. 1        2.401 /_    0.0   0.99969     4.160        1-2     4.1588 /_   30.0   0.99971
   -  2       2.4013 /_ -120.0   0.99978     4.160        2-3      4.159 /_  -90.0   0.99976
   -  3        2.401 /_  120.0   0.99966     4.160        3-1     4.1586 /_  150.0   0.99967
67 .. 1       2.3713 /_   -0.4   0.98732     4.160        1-2     4.1227 /_   29.8   0.99103
   -  2       2.3928 /_ -120.3   0.99625     4.160        2-3     4.1483 /_  -90.1   0.99718
   -  3       2.4015 /_  119.9    0.9999     4.160        3-1     4.1403 /_  149.5   0.99527
68 .. 1       2.3675 /_   -0.5   0.98571     4.160
72 .. 1       2.3742 /_   -0.4   0.98852     4.160        1-2     4.1237 /_   29.8   0.99127
   -  2       2.3905 /_ -120.3   0.99529     4.160        2-3     4.1451 /_  -90.2   0.99643
   -  3       2.3993 /_  119.9   0.99898     4.160        3-1     4.1396 /_  149.5   0.99509
97 .. 1        2.371 /_   -0.4   0.98718     4.160        1-2     4.1208 /_   29.8   0.99057
   -  2       2.3909 /_ -120.3   0.99549     4.160        2-3     4.1444 /_  -90.1   0.99625
   -  3       2.3983 /_  119.9   0.99854     4.160        3-1     4.1366 /_  149.5   0.99439
69 .. 1        2.363 /_   -0.5   0.98387     4.160
70 .. 1       2.3599 /_   -0.5   0.98257     4.160
71 .. 1       2.3581 /_   -0.5   0.98183     4.160
73 .. 3       2.3941 /_  119.8    0.9968     4.160
76 .. 1       2.3754 /_   -0.4     0.989     4.160        1-2     4.1245 /_   29.7   0.99147
   -  2       2.3891 /_ -120.3   0.99472     4.160        2-3     4.1435 /_  -90.2   0.99603
   -  3       2.3996 /_  119.9   0.99908     4.160        3-1     4.1405 /_  149.6   0.99531
74 .. 3       2.3897 /_  119.8   0.99496     4.160
75 .. 3       2.3871 /_  119.8    0.9939     4.160
77 .. 1       2.3808 /_   -0.3   0.99128     4.160        1-2     4.1318 /_   29.8   0.99321
   -  2       2.3911 /_ -120.3   0.99556     4.160        2-3     4.1462 /_  -90.1   0.99668
   -  3       2.4002 /_  119.9   0.99934     4.160        3-1     4.1446 /_  149.6    0.9963
N86 . 1       2.3753 /_   -0.4   0.98899     4.160        1-2     4.1245 /_   29.7   0.99145
   -  2        2.389 /_ -120.3   0.99469     4.160        2-3     4.1434 /_  -90.2   0.99601
   -  3       2.3996 /_  119.9   0.99908     4.160        3-1     4.1405 /_  149.6    0.9953
86 .. 1        2.373 /_   -0.4   0.98803     4.160        1-2     4.1215 /_   29.6   0.99075
   -  2       2.3846 /_ -120.5   0.99284     4.160        2-3     4.1396 /_  -90.2   0.99509
   -  3        2.403 /_  119.8    1.0005     4.160        3-1     4.1413 /_  149.5   0.99551
78 .. 1       2.3822 /_   -0.3   0.99186     4.160        1-2     4.1337 /_   29.8   0.99367
   -  2       2.3919 /_ -120.3   0.99591     4.160        2-3     4.1471 /_  -90.1    0.9969
   -  3       2.4002 /_  119.9   0.99934     4.160        3-1     4.1456 /_  149.7   0.99654
79 .. 1       2.3815 /_   -0.3   0.99157     4.160        1-2     4.1331 /_   29.8   0.99353
   -  2       2.3923 /_ -120.3   0.99604     4.160        2-3      4.147 /_  -90.1   0.99688
   -  3       2.4001 /_  119.9   0.99929     4.160        3-1     4.1454 /_  149.7   0.99649
80 .. 1       2.3903 /_   -0.2   0.99524     4.160        1-2     4.1439 /_   29.9   0.99614
   -  2       2.3952 /_ -120.2   0.99726     4.160        2-3     4.1517 /_  -90.1   0.99799
   -  3       2.4004 /_  119.9   0.99944     4.160        3-1     4.1509 /_  149.8   0.99781
81 .. 1       2.3934 /_   -0.2   0.99651     4.160        1-2     4.1479 /_   29.9   0.99709
   -  2        2.397 /_ -120.1   0.99799     4.160        2-3     4.1538 /_  -90.1    0.9985
   -  3       2.4003 /_  119.9   0.99937     4.160        3-1     4.1528 /_  149.8   0.99828
82 .. 1       2.3971 /_   -0.1   0.99804     4.160        1-2     4.1534 /_   29.9   0.99842
   -  2       2.3996 /_ -120.1   0.99909     4.160        2-3     4.1571 /_  -90.0   0.99931
   -  3       2.4012 /_  120.0   0.99975     4.160        3-1     4.1564 /_  149.9   0.99914
84 .. 3       2.3938 /_  119.9   0.99669     4.160
83 .. 1       2.4015 /_    0.0    0.9999     4.160        1-2     4.1597 /_   30.0   0.99992
   -  2       2.4019 /_ -120.0         1     4.160        2-3     4.1606 /_  -90.0    1.0001
   -  3       2.4022 /_  120.0    1.0002     4.160        3-1     4.1603 /_  150.0    1.0001
85 .. 3       2.3908 /_  119.8   0.99544     4.160
87 .. 1       2.3717 /_   -0.5   0.98747     4.160        1-2       4.12 /_   29.6   0.99039
   -  2       2.3826 /_ -120.6     0.992     4.160        2-3     4.1374 /_  -90.2   0.99457
   -  3       2.4042 /_  119.8     1.001     4.160        3-1     4.1414 /_  149.4   0.99552
88 .. 1       2.3715 /_   -0.5   0.98738     4.160
89 .. 1       2.3707 /_   -0.4   0.98704     4.160        1-2     4.1196 /_   29.5    0.9903
   -  2       2.3819 /_ -120.6   0.99172     4.160        2-3     4.1368 /_  -90.3   0.99443
   -  3       2.4051 /_  119.8    1.0014     4.160        3-1     4.1409 /_  149.4   0.99541
90 .. 2       2.3816 /_ -120.7   0.99161     4.160
91 .. 1       2.3702 /_   -0.4   0.98684     4.160        1-2     4.1189 /_   29.5   0.99011
   -  2       2.3811 /_ -120.6   0.99139     4.160        2-3     4.1366 /_  -90.3   0.99437
   -  3       2.4056 /_  119.8    1.0016     4.160        3-1     4.1405 /_  149.4   0.99531
92 .. 3       2.4053 /_  119.7    1.0015     4.160
93 .. 1       2.3694 /_   -0.5   0.98652     4.160        1-2     4.1181 /_   29.5   0.98992
   -  2       2.3807 /_ -120.7   0.99122     4.160        2-3      4.136 /_  -90.3   0.99422
   -  3       2.4058 /_  119.8    1.0017     4.160        3-1     4.1403 /_  149.4   0.99527
94 .. 1       2.3676 /_   -0.5   0.98578     4.160
95 .. 1       2.3693 /_   -0.4   0.98648     4.160        1-2     4.1178 /_   29.5   0.98985
   -  2       2.3798 /_ -120.7   0.99083     4.160        2-3     4.1352 /_  -90.3   0.99404
   -  3       2.4063 /_  119.8    1.0019     4.160        3-1     4.1404 /_  149.4   0.99528
96 .. 2       2.3791 /_ -120.7   0.99056     4.160
98 .. 1       2.3704 /_   -0.4   0.98695     4.160        1-2     4.1197 /_   29.8   0.99032
   -  2       2.3903 /_ -120.3   0.99523     4.160        2-3     4.1435 /_  -90.2   0.99602
   -  3       2.3978 /_  119.9   0.99835     4.160        3-1     4.1358 /_  149.5   0.99419
99 .. 1       2.3711 /_   -0.4   0.98723     4.160        1-2     4.1191 /_   29.8   0.99017
   -  2       2.3883 /_ -120.3   0.99439     4.160        2-3     4.1417 /_  -90.2   0.99559
   -  3       2.3971 /_  119.8   0.99805     4.160        3-1     4.1347 /_  149.5   0.99391
100 . 1       2.3716 /_   -0.4   0.98742     4.160        1-2      4.119 /_   29.8   0.99015
   -  2       2.3881 /_ -120.3   0.99432     4.160        2-3     4.1414 /_  -90.2   0.99552
   -  3       2.3962 /_  119.8   0.99766     4.160        3-1     4.1339 /_  149.5   0.99374
197 . 1        2.371 /_   -0.4   0.98718     4.160        1-2     4.1208 /_   29.8   0.99057
   -  2       2.3909 /_ -120.3   0.99549     4.160        2-3     4.1444 /_  -90.1   0.99625
   -  3       2.3983 /_  119.9   0.99854     4.160        3-1     4.1366 /_  149.5   0.99439
101 . 1       2.3711 /_   -0.4   0.98724     4.160        1-2     4.1198 /_   29.8   0.99035
   -  2       2.3897 /_ -120.3   0.99497     4.160        2-3     4.1414 /_  -90.2   0.99552
   -  3       2.3954 /_  119.9   0.99735     4.160        3-1     4.1337 /_  149.6   0.99368
102 . 3       2.3918 /_  119.8   0.99586     4.160
105 . 1       2.3702 /_   -0.4   0.98686     4.160        1-2      4.119 /_   29.8   0.99014
   -  2       2.3887 /_ -120.3   0.99454     4.160        2-3     4.1387 /_  -90.2   0.99489
   -  3       2.3944 /_  119.9   0.99694     4.160        3-1     4.1322 /_  149.6   0.99332
103 . 3       2.3877 /_  119.8   0.99414     4.160
104 . 3       2.3832 /_  119.8   0.99228     4.160
106 . 2       2.3858 /_ -120.3   0.99335     4.160
108 . 1       2.3694 /_   -0.4    0.9865     4.160        1-2     4.1186 /_   29.8   0.99004
   -  2       2.3895 /_ -120.3   0.99489     4.160        2-3     4.1371 /_  -90.2    0.9945
   -  3       2.3921 /_  119.9   0.99597     4.160        3-1     4.1302 /_  149.6   0.99283
107 . 2       2.3821 /_ -120.3   0.99182     4.160
109 . 1       2.3593 /_   -0.5   0.98233     4.160
300 . 1       2.3778 /_   -0.2      0.99     4.160        1-2     4.1264 /_   29.9   0.99193
   -  2       2.3873 /_ -120.2   0.99395     4.160        2-3     4.1325 /_  -90.2   0.99339
   -  3       2.3862 /_  119.9   0.99349     4.160        3-1     4.1272 /_  149.8   0.99212
110 . 1       2.3546 /_   -0.5   0.98036     4.160
111 . 1       2.3527 /_   -0.5   0.97959     4.160
112 . 1        2.353 /_   -0.5    0.9797     4.160
113 . 1       2.3481 /_   -0.6   0.97764     4.160
114 . 1        2.347 /_   -0.6   0.97721     4.160
135 . 1       2.3825 /_   -0.4   0.99196     4.160        1-2      4.135 /_   29.9   0.99399
   -  2       2.3979 /_ -120.1   0.99838     4.160        2-3      4.143 /_  -90.2   0.99591
   -  3       2.3874 /_  119.9   0.99401     4.160        3-1     4.1369 /_  149.8   0.99445
152 . 1       2.3826 /_   -0.3   0.99202     4.160        1-2     4.1344 /_   29.9   0.99385
   -  2       2.3968 /_ -120.1   0.99793     4.160        2-3     4.1389 /_  -90.2   0.99492
   -  3       2.3834 /_  119.9   0.99236     4.160        3-1     4.1331 /_  149.8   0.99354
160R  1       2.3707 /_   -0.4   0.98708     4.160        1-2     4.1259 /_   29.9   0.99179
   -  2       2.3966 /_ -120.2   0.99784     4.160        2-3     4.1586 /_  -90.0   0.99965
   -  3         2.41 /_  120.0    1.0034     4.160        3-1     4.1471 /_  149.5   0.99691
150R  1       2.4018 /_    0.0         1     4.160        1-2       4.16 /_   30.0         1
   -  2       2.4018 /_ -120.0         1     4.160        2-3       4.16 /_  -90.0         1
   -  3       2.4018 /_  120.0         1     4.160        3-1       4.16 /_  150.0         1
160 . 1       2.3707 /_   -0.4   0.98708     4.160        1-2      4.113 /_   29.8   0.98869
   -  2       2.3817 /_ -120.2   0.99165     4.160        2-3     4.1073 /_  -90.2   0.98734
   -  3       2.3657 /_  120.0   0.98498     4.160        3-1     4.1087 /_  149.8   0.98766
